  Version,24.2;

  Timestep,6;

  LifeCycleCost:Parameters,
    Life Cycle Cost Parameters,  !- Name
    EndOfYear,               !- Discounting Convention
    ConstantDollar,          !- Inflation Approach
    0.03,                    !- Real Discount Rate
    ,                        !- Nominal Discount Rate
    ,                        !- Inflation
    ,                        !- Base Date Month
    2011,                    !- Base Date Year
    ,                        !- Service Date Month
    2011,                    !- Service Date Year
    25,                      !- Length of Study Period in Years
    ,                        !- Tax rate
    None;                    !- Depreciation Method

  LifeCycleCost:UsePriceEscalation,
    U.S. Avg  Commercial-Electricity,  !- LCC Price Escalation Name
    Electricity,             !- Resource
    2011,                    !- Escalation Start Year
    January,                 !- Escalation Start Month
    0.9838,                  !- Year 1 Escalation
    0.9730,                  !- Year 2 Escalation
    0.9632,                  !- Year 3 Escalation
    0.9611,                  !- Year 4 Escalation
    0.9571,                  !- Year 5 Escalation
    0.9553,                  !- Year 6 Escalation
    0.9539,                  !- Year 7 Escalation
    0.9521,                  !- Year 8 Escalation
    0.9546,                  !- Year 9 Escalation
    0.9550,                  !- <none>
    0.9553,                  !- <none>
    0.9564,                  !- <none>
    0.9575,                  !- <none>
    0.9596,                  !- <none>
    0.9618,                  !- <none>
    0.9614,                  !- <none>
    0.9618,                  !- <none>
    0.9618,                  !- <none>
    0.9593,                  !- <none>
    0.9589,                  !- <none>
    0.9607,                  !- <none>
    0.9625,                  !- <none>
    0.9650,                  !- <none>
    0.9708,                  !- <none>
    0.9751,                  !- <none>
    0.9762,                  !- <none>
    0.9766,                  !- <none>
    0.9766,                  !- <none>
    0.9769,                  !- <none>
    0.9773;                  !- <none>

  LifeCycleCost:UsePriceEscalation,
    U.S. Avg  Commercial-Distillate Oil,  !- LCC Price Escalation Name
    FuelOilNo1,              !- Resource
    2011,                    !- Escalation Start Year
    January,                 !- Escalation Start Month
    0.9714,                  !- Year 1 Escalation
    0.9730,                  !- Year 2 Escalation
    0.9942,                  !- Year 3 Escalation
    1.0164,                  !- Year 4 Escalation
    1.0541,                  !- Year 5 Escalation
    1.0928,                  !- Year 6 Escalation
    1.1267,                  !- Year 7 Escalation
    1.1580,                  !- Year 8 Escalation
    1.1792,                  !- Year 9 Escalation
    1.1967,                  !- <none>
    1.2200,                  !- <none>
    1.2333,                  !- <none>
    1.2566,                  !- <none>
    1.2709,                  !- <none>
    1.2826,                  !- <none>
    1.2985,                  !- <none>
    1.3102,                  !- <none>
    1.3250,                  !- <none>
    1.3261,                  !- <none>
    1.3282,                  !- <none>
    1.3324,                  !- <none>
    1.3356,                  !- <none>
    1.3431,                  !- <none>
    1.3510,                  !- <none>
    1.3568,                  !- <none>
    1.3606,                  !- <none>
    1.3637,                  !- <none>
    1.3674,                  !- <none>
    1.3706,                  !- <none>
    1.3743;                  !- <none>

  LifeCycleCost:UsePriceEscalation,
    U.S. Avg  Commercial-Residual Oil,  !- LCC Price Escalation Name
    FuelOilNo2,              !- Resource
    2011,                    !- Escalation Start Year
    January,                 !- Escalation Start Month
    0.8469,                  !- Year 1 Escalation
    0.8257,                  !- Year 2 Escalation
    0.8681,                  !- Year 3 Escalation
    0.8988,                  !- Year 4 Escalation
    0.9289,                  !- Year 5 Escalation
    0.9604,                  !- Year 6 Escalation
    0.9897,                  !- Year 7 Escalation
    1.0075,                  !- Year 8 Escalation
    1.0314,                  !- Year 9 Escalation
    1.0554,                  !- <none>
    1.0861,                  !- <none>
    1.1278,                  !- <none>
    1.1497,                  !- <none>
    1.1620,                  !- <none>
    1.1743,                  !- <none>
    1.1852,                  !- <none>
    1.1948,                  !- <none>
    1.2037,                  !- <none>
    1.2071,                  !- <none>
    1.2119,                  !- <none>
    1.2139,                  !- <none>
    1.2194,                  !- <none>
    1.2276,                  !- <none>
    1.2365,                  !- <none>
    1.2420,                  !- <none>
    1.2461,                  !- <none>
    1.2509,                  !- <none>
    1.2550,                  !- <none>
    1.2591,                  !- <none>
    1.2638;                  !- <none>

  LifeCycleCost:UsePriceEscalation,
    U.S. Avg  Commercial-Natural gas,  !- LCC Price Escalation Name
    NaturalGas,              !- Resource
    2011,                    !- Escalation Start Year
    January,                 !- Escalation Start Month
    0.9823,                  !- Year 1 Escalation
    0.9557,                  !- Year 2 Escalation
    0.9279,                  !- Year 3 Escalation
    0.9257,                  !- Year 4 Escalation
    0.9346,                  !- Year 5 Escalation
    0.9412,                  !- Year 6 Escalation
    0.9512,                  !- Year 7 Escalation
    0.9645,                  !- Year 8 Escalation
    0.9856,                  !- Year 9 Escalation
    1.0067,                  !- <none>
    1.0222,                  !- <none>
    1.0410,                  !- <none>
    1.0610,                  !- <none>
    1.0787,                  !- <none>
    1.0942,                  !- <none>
    1.1098,                  !- <none>
    1.1220,                  !- <none>
    1.1308,                  !- <none>
    1.1386,                  !- <none>
    1.1486,                  !- <none>
    1.1619,                  !- <none>
    1.1763,                  !- <none>
    1.1918,                  !- <none>
    1.2118,                  !- <none>
    1.2284,                  !- <none>
    1.2439,                  !- <none>
    1.2605,                  !- <none>
    1.2772,                  !- <none>
    1.2938,                  !- <none>
    1.3115;                  !- <none>

  LifeCycleCost:UsePriceEscalation,
    U.S. Avg  Commercial-Coal,  !- LCC Price Escalation Name
    Coal,                    !- Resource
    2011,                    !- Escalation Start Year
    January,                 !- Escalation Start Month
    0.9970,                  !- Year 1 Escalation
    1.0089,                  !- Year 2 Escalation
    1.0089,                  !- Year 3 Escalation
    0.9941,                  !- Year 4 Escalation
    0.9941,                  !- Year 5 Escalation
    1.0000,                  !- Year 6 Escalation
    1.0030,                  !- Year 7 Escalation
    1.0059,                  !- Year 8 Escalation
    1.0089,                  !- Year 9 Escalation
    1.0119,                  !- <none>
    1.0148,                  !- <none>
    1.0178,                  !- <none>
    1.0208,                  !- <none>
    1.0267,                  !- <none>
    1.0297,                  !- <none>
    1.0356,                  !- <none>
    1.0415,                  !- <none>
    1.0534,                  !- <none>
    1.0564,                  !- <none>
    1.0593,                  !- <none>
    1.0653,                  !- <none>
    1.0712,                  !- <none>
    1.0742,                  !- <none>
    1.0801,                  !- <none>
    1.0831,                  !- <none>
    1.0831,                  !- <none>
    1.0861,                  !- <none>
    1.0890,                  !- <none>
    1.0920,                  !- <none>
    1.0950;                  !- <none>

  Building,
    HDB Archetype,           !- Name
    0,                       !- North Axis {deg}
    City,                    !- Terrain
    ,                        !- Loads Convergence Tolerance Value {W}
    ,                        !- Temperature Convergence Tolerance Value {deltaC}
    FullExteriorWithReflections,  !- Solar Distribution
    ,                        !- Maximum Number of Warmup Days
    ;                        !- Minimum Number of Warmup Days

  Zone,
    HDB_Shoebox_1_c565c3c5,  !- Name
    ,                        !- Direction of Relative North {deg}
    0,                       !- X Origin {m}
    0,                       !- Y Origin {m}
    0,                       !- Z Origin {m}
    ,                        !- Type
    1,                       !- Multiplier
    3,                       !- Ceiling Height {m}
    192,                     !- Volume {m3}
    ,                        !- Floor Area {m2}
    ,                        !- Zone Inside Convection Algorithm
    ,                        !- Zone Outside Convection Algorithm
    Yes;                     !- Part of Total Floor Area

  Space,
    HDB_Shoebox_1_c565c3c5_Space,  !- Name
    HDB_Shoebox_1_c565c3c5,  !- Zone Name
    ,                        !- Ceiling Height {m}
    ,                        !- Volume {m3}
    ,                        !- Floor Area {m2}
    HDB;                     !- Space Type

  SpaceList,
    HDB,                     !- Name
    HDB_Shoebox_1_c565c3c5_Space,  !- Space 1 Name
    HDB_Shoebox_4_41329e7e_Space,  !- Space 2 Name
    HDB_Shoebox_2_7d747fb1_Space,  !- Space 3 Name
    HDB_Shoebox_5_800a9ae9_Space,  !- Space 4 Name
    HDB_Shoebox_3_6fb47b1d_Space;  !- Space 5 Name

  Lights,
    HDB Lighting,            !- Name
    HDB,                     !- Zone or ZoneList or Space or SpaceList Name
    Lighting and Hotwater,   !- Schedule Name
    Watts/Area,              !- Design Level Calculation Method
    ,                        !- Lighting Level {W}
    4,                       !- Watts per Floor Area {W/m2}
    ,                        !- Watts per Person {W/person}
    0,                       !- Return Air Fraction
    0.2,                     !- Fraction Radiant
    0.7,                     !- Fraction Visible
    1,                       !- Fraction Replaceable
    General;                 !- End-Use Subcategory

  ScheduleTypeLimits,
    Fractional,              !- Name
    0,                       !- Lower Limit Value
    1,                       !- Upper Limit Value
    Continuous,              !- Numeric Type
    dimensionless;           !- Unit Type

  Schedule:Day:Interval,
    Lighting and Hotwater_Day Schedule,  !- Name
    Fractional,              !- Schedule Type Limits Name
    No,                      !- Interpolate to Timestep
    06:00,                   !- Time 1
    0,                       !- Value Until Time 1
    07:00,                   !- Time 2
    0.33,                    !- Value Until Time 2
    08:00,                   !- Time 3
    0.32,                    !- Value Until Time 3
    09:00,                   !- Time 4
    0.29,                    !- Value Until Time 4
    18:00,                   !- Time 5
    0,                       !- Value Until Time 5
    19:00,                   !- Time 6
    0.32,                    !- Value Until Time 6
    20:00,                   !- Time 7
    0.35,                    !- Value Until Time 7
    21:00,                   !- Time 8
    0.4,                     !- Value Until Time 8
    22:00,                   !- Time 9
    0.48,                    !- Value Until Time 9
    24:00,                   !- Time 10
    0;                       !- Value Until Time 10

  Schedule:Week:Daily,
    Lighting and Hotwater Week Rule - Jan1-Dec31,  !- Name
    Lighting and Hotwater_Day Schedule,  !- Sunday Schedule:Day Name
    Lighting and Hotwater_Day Schedule,  !- Monday Schedule:Day Name
    Lighting and Hotwater_Day Schedule,  !- Tuesday Schedule:Day Name
    Lighting and Hotwater_Day Schedule,  !- Wednesday Schedule:Day Name
    Lighting and Hotwater_Day Schedule,  !- Thursday Schedule:Day Name
    Lighting and Hotwater_Day Schedule,  !- Friday Schedule:Day Name
    Lighting and Hotwater_Day Schedule,  !- Saturday Schedule:Day Name
    Lighting and Hotwater_Day Schedule,  !- Holiday Schedule:Day Name
    Lighting and Hotwater_Day Schedule,  !- SummerDesignDay Schedule:Day Name
    Lighting and Hotwater_Day Schedule,  !- WinterDesignDay Schedule:Day Name
    Lighting and Hotwater_Day Schedule,  !- CustomDay1 Schedule:Day Name
    Lighting and Hotwater_Day Schedule;  !- CustomDay2 Schedule:Day Name

  Schedule:Year,
    Lighting and Hotwater,   !- Name
    Fractional,              !- Schedule Type Limits Name
    Lighting and Hotwater Week Rule - Jan1-Dec31,  !- Schedule:Week Name 1
    1,                       !- Start Month 1
    1,                       !- Start Day 1
    12,                      !- End Month 1
    31;                      !- End Day 1

  People,
    HDB People,              !- Name
    HDB,                     !- Zone or ZoneList or Space or SpaceList Name
    Building Occupancy,      !- Number of People Schedule Name
    People/Area,             !- Number of People Calculation Method
    ,                        !- Number of People
    0.0302,                  !- People per Floor Area {person/m2}
    ,                        !- Floor Area per Person {m2/person}
    0.3,                     !- Fraction Radiant
    0.7,                     !- Sensible Heat Fraction
    Activity Level;          !- Activity Level Schedule Name

  Schedule:Day:Interval,
    Building Occupancy_Sunday,  !- Name
    Fractional,              !- Schedule Type Limits Name
    No,                      !- Interpolate to Timestep
    01:00,                   !- Time 1
    0.92,                    !- Value Until Time 1
    02:00,                   !- Time 2
    0.82,                    !- Value Until Time 2
    03:00,                   !- Time 3
    0.74,                    !- Value Until Time 3
    04:00,                   !- Time 4
    0.68,                    !- Value Until Time 4
    05:00,                   !- Time 5
    0.64,                    !- Value Until Time 5
    06:00,                   !- Time 6
    0.63,                    !- Value Until Time 6
    07:00,                   !- Time 7
    0.66,                    !- Value Until Time 7
    08:00,                   !- Time 8
    0.64,                    !- Value Until Time 8
    09:00,                   !- Time 9
    0.58,                    !- Value Until Time 9
    10:00,                   !- Time 10
    0.53,                    !- Value Until Time 10
    19:00,                   !- Time 11
    0,                       !- Value Until Time 11
    20:00,                   !- Time 12
    0.7,                     !- Value Until Time 12
    21:00,                   !- Time 13
    0.8,                     !- Value Until Time 13
    22:00,                   !- Time 14
    0.95,                    !- Value Until Time 14
    23:00,                   !- Time 15
    1,                       !- Value Until Time 15
    24:00,                   !- Time 16
    0.98;                    !- Value Until Time 16

  Schedule:Week:Daily,
    Building Occupancy Week Rule - Jan1-Dec31,  !- Name
    Building Occupancy_Sunday,  !- Sunday Schedule:Day Name
    Building Occupancy_Sunday,  !- Monday Schedule:Day Name
    Building Occupancy_Sunday,  !- Tuesday Schedule:Day Name
    Building Occupancy_Sunday,  !- Wednesday Schedule:Day Name
    Building Occupancy_Sunday,  !- Thursday Schedule:Day Name
    Building Occupancy_Sunday,  !- Friday Schedule:Day Name
    Building Occupancy_Sunday,  !- Saturday Schedule:Day Name
    Building Occupancy_Hol 1,!- Holiday Schedule:Day Name
    Building Occupancy_Sunday_SmrDsn 1,  !- SummerDesignDay Schedule:Day Name
    Building Occupancy_Sunday_SmrDsn_WntrDsn 1,  !- WinterDesignDay Schedule:Day Name
    Building Occupancy_Sunday,  !- CustomDay1 Schedule:Day Name
    Building Occupancy_Sunday;  !- CustomDay2 Schedule:Day Name

  Schedule:Year,
    Building Occupancy,      !- Name
    Fractional,              !- Schedule Type Limits Name
    Building Occupancy Week Rule - Jan1-Dec31,  !- Schedule:Week Name 1
    1,                       !- Start Month 1
    1,                       !- Start Day 1
    12,                      !- End Month 1
    31;                      !- End Day 1

  Schedule:Day:Interval,
    Building Occupancy_Sunday_SmrDsn 1,  !- Name
    Fractional,              !- Schedule Type Limits Name
    No,                      !- Interpolate to Timestep
    01:00,                   !- Time 1
    0.92,                    !- Value Until Time 1
    02:00,                   !- Time 2
    0.82,                    !- Value Until Time 2
    03:00,                   !- Time 3
    0.74,                    !- Value Until Time 3
    04:00,                   !- Time 4
    0.68,                    !- Value Until Time 4
    05:00,                   !- Time 5
    0.64,                    !- Value Until Time 5
    06:00,                   !- Time 6
    0.63,                    !- Value Until Time 6
    07:00,                   !- Time 7
    0.66,                    !- Value Until Time 7
    08:00,                   !- Time 8
    0.64,                    !- Value Until Time 8
    09:00,                   !- Time 9
    0.58,                    !- Value Until Time 9
    10:00,                   !- Time 10
    0.53,                    !- Value Until Time 10
    19:00,                   !- Time 11
    0,                       !- Value Until Time 11
    20:00,                   !- Time 12
    0.7,                     !- Value Until Time 12
    21:00,                   !- Time 13
    0.8,                     !- Value Until Time 13
    22:00,                   !- Time 14
    0.95,                    !- Value Until Time 14
    23:00,                   !- Time 15
    1,                       !- Value Until Time 15
    24:00,                   !- Time 16
    0.98;                    !- Value Until Time 16

  Schedule:Day:Interval,
    Building Occupancy_Sunday_SmrDsn_WntrDsn 1,  !- Name
    Fractional,              !- Schedule Type Limits Name
    No,                      !- Interpolate to Timestep
    01:00,                   !- Time 1
    0.92,                    !- Value Until Time 1
    02:00,                   !- Time 2
    0.82,                    !- Value Until Time 2
    03:00,                   !- Time 3
    0.74,                    !- Value Until Time 3
    04:00,                   !- Time 4
    0.68,                    !- Value Until Time 4
    05:00,                   !- Time 5
    0.64,                    !- Value Until Time 5
    06:00,                   !- Time 6
    0.63,                    !- Value Until Time 6
    07:00,                   !- Time 7
    0.66,                    !- Value Until Time 7
    08:00,                   !- Time 8
    0.64,                    !- Value Until Time 8
    09:00,                   !- Time 9
    0.58,                    !- Value Until Time 9
    10:00,                   !- Time 10
    0.53,                    !- Value Until Time 10
    19:00,                   !- Time 11
    0,                       !- Value Until Time 11
    20:00,                   !- Time 12
    0.7,                     !- Value Until Time 12
    21:00,                   !- Time 13
    0.8,                     !- Value Until Time 13
    22:00,                   !- Time 14
    0.95,                    !- Value Until Time 14
    23:00,                   !- Time 15
    1,                       !- Value Until Time 15
    24:00,                   !- Time 16
    0.98;                    !- Value Until Time 16

  Schedule:Day:Interval,
    Building Occupancy_Hol 1,!- Name
    Fractional,              !- Schedule Type Limits Name
    No,                      !- Interpolate to Timestep
    01:00,                   !- Time 1
    0.92,                    !- Value Until Time 1
    02:00,                   !- Time 2
    0.82,                    !- Value Until Time 2
    03:00,                   !- Time 3
    0.74,                    !- Value Until Time 3
    04:00,                   !- Time 4
    0.68,                    !- Value Until Time 4
    05:00,                   !- Time 5
    0.64,                    !- Value Until Time 5
    06:00,                   !- Time 6
    0.63,                    !- Value Until Time 6
    07:00,                   !- Time 7
    0.66,                    !- Value Until Time 7
    08:00,                   !- Time 8
    0.64,                    !- Value Until Time 8
    09:00,                   !- Time 9
    0.58,                    !- Value Until Time 9
    10:00,                   !- Time 10
    0.53,                    !- Value Until Time 10
    19:00,                   !- Time 11
    0,                       !- Value Until Time 11
    20:00,                   !- Time 12
    0.7,                     !- Value Until Time 12
    21:00,                   !- Time 13
    0.8,                     !- Value Until Time 13
    22:00,                   !- Time 14
    0.95,                    !- Value Until Time 14
    23:00,                   !- Time 15
    1,                       !- Value Until Time 15
    24:00,                   !- Time 16
    0.98;                    !- Value Until Time 16

  ScheduleTypeLimits,
    Activity Level,          !- Name
    0,                       !- Lower Limit Value
    ,                        !- Upper Limit Value
    Continuous,              !- Numeric Type
    activitylevel;           !- Unit Type

  Schedule:Day:Interval,
    Activity Level_Day Schedule,  !- Name
    Activity Level,          !- Schedule Type Limits Name
    No,                      !- Interpolate to Timestep
    24:00,                   !- Time 1
    120;                     !- Value Until Time 1

  Schedule:Week:Daily,
    Activity Level Week Rule - Jan1-Dec31,  !- Name
    Activity Level_Day Schedule,  !- Sunday Schedule:Day Name
    Activity Level_Day Schedule,  !- Monday Schedule:Day Name
    Activity Level_Day Schedule,  !- Tuesday Schedule:Day Name
    Activity Level_Day Schedule,  !- Wednesday Schedule:Day Name
    Activity Level_Day Schedule,  !- Thursday Schedule:Day Name
    Activity Level_Day Schedule,  !- Friday Schedule:Day Name
    Activity Level_Day Schedule,  !- Saturday Schedule:Day Name
    Activity Level_Day Schedule,  !- Holiday Schedule:Day Name
    Activity Level_Day Schedule,  !- SummerDesignDay Schedule:Day Name
    Activity Level_Day Schedule,  !- WinterDesignDay Schedule:Day Name
    Activity Level_Day Schedule,  !- CustomDay1 Schedule:Day Name
    Activity Level_Day Schedule;  !- CustomDay2 Schedule:Day Name

  Schedule:Year,
    Activity Level,          !- Name
    Activity Level,          !- Schedule Type Limits Name
    Activity Level Week Rule - Jan1-Dec31,  !- Schedule:Week Name 1
    1,                       !- Start Month 1
    1,                       !- Start Day 1
    12,                      !- End Month 1
    31;                      !- End Day 1

  ElectricEquipment,
    HDB Equipment,           !- Name
    HDB,                     !- Zone or ZoneList or Space or SpaceList Name
    Equipment,               !- Schedule Name
    Watts/Area,              !- Design Level Calculation Method
    ,                        !- Design Level {W}
    6,                       !- Watts per Floor Area {W/m2}
    ,                        !- Watts per Person {W/person}
    0,                       !- Fraction Latent
    0.5,                     !- Fraction Radiant
    0,                       !- Fraction Lost
    Electric Equipment;      !- End-Use Subcategory

  Schedule:Day:Interval,
    Equipment_Day Schedule,  !- Name
    Fractional,              !- Schedule Type Limits Name
    No,                      !- Interpolate to Timestep
    06:00,                   !- Time 1
    0.15,                    !- Value Until Time 1
    07:00,                   !- Time 2
    0.33,                    !- Value Until Time 2
    08:00,                   !- Time 3
    0.32,                    !- Value Until Time 3
    09:00,                   !- Time 4
    0.29,                    !- Value Until Time 4
    17:00,                   !- Time 5
    0.15,                    !- Value Until Time 5
    18:00,                   !- Time 6
    0.3,                     !- Value Until Time 6
    19:00,                   !- Time 7
    0.32,                    !- Value Until Time 7
    20:00,                   !- Time 8
    0.35,                    !- Value Until Time 8
    21:00,                   !- Time 9
    0.4,                     !- Value Until Time 9
    22:00,                   !- Time 10
    0.48,                    !- Value Until Time 10
    24:00,                   !- Time 11
    0.15;                    !- Value Until Time 11

  Schedule:Week:Daily,
    Equipment Week Rule - Jan1-Dec31,  !- Name
    Equipment_Day Schedule,  !- Sunday Schedule:Day Name
    Equipment_Day Schedule,  !- Monday Schedule:Day Name
    Equipment_Day Schedule,  !- Tuesday Schedule:Day Name
    Equipment_Day Schedule,  !- Wednesday Schedule:Day Name
    Equipment_Day Schedule,  !- Thursday Schedule:Day Name
    Equipment_Day Schedule,  !- Friday Schedule:Day Name
    Equipment_Day Schedule,  !- Saturday Schedule:Day Name
    Equipment_Day Schedule,  !- Holiday Schedule:Day Name
    Equipment_Day Schedule,  !- SummerDesignDay Schedule:Day Name
    Equipment_Day Schedule,  !- WinterDesignDay Schedule:Day Name
    Equipment_Day Schedule,  !- CustomDay1 Schedule:Day Name
    Equipment_Day Schedule;  !- CustomDay2 Schedule:Day Name

  Schedule:Year,
    Equipment,               !- Name
    Fractional,              !- Schedule Type Limits Name
    Equipment Week Rule - Jan1-Dec31,  !- Schedule:Week Name 1
    1,                       !- Start Month 1
    1,                       !- Start Day 1
    12,                      !- End Month 1
    31;                      !- End Day 1

  BuildingSurface:Detailed,
    HDB_Shoebox_1_c565c3c5..Face0,  !- Name
    Wall,                    !- Surface Type
    Generic Air Boundary,    !- Construction Name
    HDB_Shoebox_1_c565c3c5,  !- Zone Name
    HDB_Shoebox_1_c565c3c5_Space,  !- Space Name
    Surface,                 !- Outside Boundary Condition
    HDB_Shoebox_3_6fb47b1d..Face1,  !- Outside Boundary Condition Object
    NoSun,                   !- Sun Exposure
    NoWind,                  !- Wind Exposure
    ,                        !- View Factor to Ground
    ,                        !- Number of Vertices
    1,9,3,  !- X,Y,Z ==> Vertex 1 {m}
    1,9,0,  !- X,Y,Z ==> Vertex 2 {m}
    1,1,0,  !- X,Y,Z ==> Vertex 3 {m}
    1,1,3;  !- X,Y,Z ==> Vertex 4 {m}

  BuildingSurface:Detailed,
    HDB_Shoebox_1_c565c3c5..Face1,  !- Name
    Wall,                    !- Surface Type
    Generic Air Boundary,    !- Construction Name
    HDB_Shoebox_1_c565c3c5,  !- Zone Name
    HDB_Shoebox_1_c565c3c5_Space,  !- Space Name
    Surface,                 !- Outside Boundary Condition
    HDB_Shoebox_2_7d747fb1..Face1,  !- Outside Boundary Condition Object
    NoSun,                   !- Sun Exposure
    NoWind,                  !- Wind Exposure
    ,                        !- View Factor to Ground
    ,                        !- Number of Vertices
    1,1,3,  !- X,Y,Z ==> Vertex 1 {m}
    1,1,0,  !- X,Y,Z ==> Vertex 2 {m}
    9,1,0,  !- X,Y,Z ==> Vertex 3 {m}
    9,1,3;  !- X,Y,Z ==> Vertex 4 {m}

  BuildingSurface:Detailed,
    HDB_Shoebox_1_c565c3c5..Face2,  !- Name
    Wall,                    !- Surface Type
    Generic Air Boundary,    !- Construction Name
    HDB_Shoebox_1_c565c3c5,  !- Zone Name
    HDB_Shoebox_1_c565c3c5_Space,  !- Space Name
    Surface,                 !- Outside Boundary Condition
    HDB_Shoebox_5_800a9ae9..Face1,  !- Outside Boundary Condition Object
    NoSun,                   !- Sun Exposure
    NoWind,                  !- Wind Exposure
    ,                        !- View Factor to Ground
    ,                        !- Number of Vertices
    9,1,3,  !- X,Y,Z ==> Vertex 1 {m}
    9,1,0,  !- X,Y,Z ==> Vertex 2 {m}
    9,9,0,  !- X,Y,Z ==> Vertex 3 {m}
    9,9,3;  !- X,Y,Z ==> Vertex 4 {m}

  BuildingSurface:Detailed,
    HDB_Shoebox_1_c565c3c5..Face3,  !- Name
    Wall,                    !- Surface Type
    Generic Air Boundary,    !- Construction Name
    HDB_Shoebox_1_c565c3c5,  !- Zone Name
    HDB_Shoebox_1_c565c3c5_Space,  !- Space Name
    Surface,                 !- Outside Boundary Condition
    HDB_Shoebox_4_41329e7e..Face1,  !- Outside Boundary Condition Object
    NoSun,                   !- Sun Exposure
    NoWind,                  !- Wind Exposure
    ,                        !- View Factor to Ground
    ,                        !- Number of Vertices
    9,9,3,  !- X,Y,Z ==> Vertex 1 {m}
    9,9,0,  !- X,Y,Z ==> Vertex 2 {m}
    1,9,0,  !- X,Y,Z ==> Vertex 3 {m}
    1,9,3;  !- X,Y,Z ==> Vertex 4 {m}
