  Version,24.2;

  Timestep,6;

  LifeCycleCost:Parameters,
    Life Cycle Cost Parameters,  !- Name
    EndOfYear,               !- Discounting Convention
    ConstantDollar,          !- Inflation Approach
    0.03,                    !- Real Discount Rate
    ,                        !- Nominal Discount Rate
    ,                        !- Inflation
    ,                        !- Base Date Month
    2011,                    !- Base Date Year
    ,                        !- Service Date Month
    2011,                    !- Service Date Year
    25,                      !- Length of Study Period in Years
    ,                        !- Tax rate
    None;                    !- Depreciation Method

  LifeCycleCost:UsePriceEscalation,
    U.S. Avg  Commercial-Electricity,  !- LCC Price Escalation Name
    Electricity,             !- Resource
    2011,                    !- Escalation Start Year
    January,                 !- Escalation Start Month
    0.9838,                  !- Year 1 Escalation
    0.9730,                  !- Year 2 Escalation
    0.9632,                  !- Year 3 Escalation
    0.9611,                  !- Year 4 Escalation
    0.9571,                  !- Year 5 Escalation
    0.9553,                  !- Year 6 Escalation
    0.9539,                  !- Year 7 Escalation
    0.9521,                  !- Year 8 Escalation
    0.9546,                  !- Year 9 Escalation
    0.9550,                  !- <none>
    0.9553,                  !- <none>
    0.9564,                  !- <none>
    0.9575,                  !- <none>
    0.9596,                  !- <none>
    0.9618,                  !- <none>
    0.9614,                  !- <none>
    0.9618,                  !- <none>
    0.9618,                  !- <none>
    0.9593,                  !- <none>
    0.9589,                  !- <none>
    0.9607,                  !- <none>
    0.9625,                  !- <none>
    0.9650,                  !- <none>
    0.9708,                  !- <none>
    0.9751,                  !- <none>
    0.9762,                  !- <none>
    0.9766,                  !- <none>
    0.9766,                  !- <none>
    0.9769,                  !- <none>
    0.9773;                  !- <none>

  LifeCycleCost:UsePriceEscalation,
    U.S. Avg  Commercial-Distillate Oil,  !- LCC Price Escalation Name
    FuelOilNo1,              !- Resource
    2011,                    !- Escalation Start Year
    January,                 !- Escalation Start Month
    0.9714,                  !- Year 1 Escalation
    0.9730,                  !- Year 2 Escalation
    0.9942,                  !- Year 3 Escalation
    1.0164,                  !- Year 4 Escalation
    1.0541,                  !- Year 5 Escalation
    1.0928,                  !- Year 6 Escalation
    1.1267,                  !- Year 7 Escalation
    1.1580,                  !- Year 8 Escalation
    1.1792,                  !- Year 9 Escalation
    1.1967,                  !- <none>
    1.2200,                  !- <none>
    1.2333,                  !- <none>
    1.2566,                  !- <none>
    1.2709,                  !- <none>
    1.2826,                  !- <none>
    1.2985,                  !- <none>
    1.3102,                  !- <none>
    1.3250,                  !- <none>
    1.3261,                  !- <none>
    1.3282,                  !- <none>
    1.3324,                  !- <none>
    1.3356,                  !- <none>
    1.3431,                  !- <none>
    1.3510,                  !- <none>
    1.3568,                  !- <none>
    1.3606,                  !- <none>
    1.3637,                  !- <none>
    1.3674,                  !- <none>
    1.3706,                  !- <none>
    1.3743;                  !- <none>

  LifeCycleCost:UsePriceEscalation,
    U.S. Avg  Commercial-Residual Oil,  !- LCC Price Escalation Name
    FuelOilNo2,              !- Resource
    2011,                    !- Escalation Start Year
    January,                 !- Escalation Start Month
    0.8469,                  !- Year 1 Escalation
    0.8257,                  !- Year 2 Escalation
    0.8681,                  !- Year 3 Escalation
    0.8988,                  !- Year 4 Escalation
    0.9289,                  !- Year 5 Escalation
    0.9604,                  !- Year 6 Escalation
    0.9897,                  !- Year 7 Escalation
    1.0075,                  !- Year 8 Escalation
    1.0314,                  !- Year 9 Escalation
    1.0554,                  !- <none>
    1.0861,                  !- <none>
    1.1278,                  !- <none>
    1.1497,                  !- <none>
    1.1620,                  !- <none>
    1.1743,                  !- <none>
    1.1852,                  !- <none>
    1.1948,                  !- <none>
    1.2037,                  !- <none>
    1.2071,                  !- <none>
    1.2119,                  !- <none>
    1.2139,                  !- <none>
    1.2194,                  !- <none>
    1.2276,                  !- <none>
    1.2365,                  !- <none>
    1.2420,                  !- <none>
    1.2461,                  !- <none>
    1.2509,                  !- <none>
    1.2550,                  !- <none>
    1.2591,                  !- <none>
    1.2638;                  !- <none>

  LifeCycleCost:UsePriceEscalation,
    U.S. Avg  Commercial-Natural gas,  !- LCC Price Escalation Name
    NaturalGas,              !- Resource
    2011,                    !- Escalation Start Year
    January,                 !- Escalation Start Month
    0.9823,                  !- Year 1 Escalation
    0.9557,                  !- Year 2 Escalation
    0.9279,                  !- Year 3 Escalation
    0.9257,                  !- Year 4 Escalation
    0.9346,                  !- Year 5 Escalation
    0.9412,                  !- Year 6 Escalation
    0.9512,                  !- Year 7 Escalation
    0.9645,                  !- Year 8 Escalation
    0.9856,                  !- Year 9 Escalation
    1.0067,                  !- <none>
    1.0222,                  !- <none>
    1.0410,                  !- <none>
    1.0610,                  !- <none>
    1.0787,                  !- <none>
    1.0942,                  !- <none>
    1.1098,                  !- <none>
    1.1220,                  !- <none>
    1.1308,                  !- <none>
    1.1386,                  !- <none>
    1.1486,                  !- <none>
    1.1619,                  !- <none>
    1.1763,                  !- <none>
    1.1918,                  !- <none>
    1.2118,                  !- <none>
    1.2284,                  !- <none>
    1.2439,                  !- <none>
    1.2605,                  !- <none>
    1.2772,                  !- <none>
    1.2938,                  !- <none>
    1.3115;                  !- <none>

  LifeCycleCost:UsePriceEscalation,
    U.S. Avg  Commercial-Coal,  !- LCC Price Escalation Name
    Coal,                    !- Resource
    2011,                    !- Escalation Start Year
    January,                 !- Escalation Start Month
    0.9970,                  !- Year 1 Escalation
    1.0089,                  !- Year 2 Escalation
    1.0089,                  !- Year 3 Escalation
    0.9941,                  !- Year 4 Escalation
    0.9941,                  !- Year 5 Escalation
    1.0000,                  !- Year 6 Escalation
    1.0030,                  !- Year 7 Escalation
    1.0059,                  !- Year 8 Escalation
    1.0089,                  !- Year 9 Escalation
    1.0119,                  !- <none>
    1.0148,                  !- <none>
    1.0178,                  !- <none>
    1.0208,                  !- <none>
    1.0267,                  !- <none>
    1.0297,                  !- <none>
    1.0356,                  !- <none>
    1.0415,                  !- <none>
    1.0534,                  !- <none>
    1.0564,                  !- <none>
    1.0593,                  !- <none>
    1.0653,                  !- <none>
    1.0712,                  !- <none>
    1.0742,                  !- <none>
    1.0801,                  !- <none>
    1.0831,                  !- <none>
    1.0831,                  !- <none>
    1.0861,                  !- <none>
    1.0890,                  !- <none>
    1.0920,                  !- <none>
    1.0950;                  !- <none>

  Building,
    NonIHL Archetype,        !- Name
    0,                       !- North Axis {deg}
    City,                    !- Terrain
    ,                        !- Loads Convergence Tolerance Value {W}
    ,                        !- Temperature Convergence Tolerance Value {deltaC}
    FullExteriorWithReflections,  !- Solar Distribution
    ,                        !- Maximum Number of Warmup Days
    ;                        !- Minimum Number of Warmup Days

  Zone,
    NonIHL_Shoebox_1_6f0fbfeb,  !- Name
    ,                        !- Direction of Relative North {deg}
    0,                       !- X Origin {m}
    0,                       !- Y Origin {m}
    0,                       !- Z Origin {m}
    ,                        !- Type
    1,                       !- Multiplier
    3,                       !- Ceiling Height {m}
    192,                     !- Volume {m3}
    ,                        !- Floor Area {m2}
    ,                        !- Zone Inside Convection Algorithm
    ,                        !- Zone Outside Convection Algorithm
    Yes;                     !- Part of Total Floor Area

  Space,
    NonIHL_Shoebox_1_6f0fbfeb_Space,  !- Name
    NonIHL_Shoebox_1_6f0fbfeb,  !- Zone Name
    ,                        !- Ceiling Height {m}
    ,                        !- Volume {m3}
    ,                        !- Floor Area {m2}
    NonIHL;                  !- Space Type

  SpaceList,
    NonIHL,                  !- Name
    NonIHL_Shoebox_1_6f0fbfeb_Space,  !- Space 1 Name
    NonIHL_Shoebox_4_cb3a4fdc_Space,  !- Space 2 Name
    NonIHL_Shoebox_2_13b1d407_Space,  !- Space 3 Name
    NonIHL_Shoebox_3_62284603_Space,  !- Space 4 Name
    NonIHL_Shoebox_5_a1d11df5_Space;  !- Space 5 Name

  Lights,
    NonIHL Lighting,         !- Name
    NonIHL,                  !- Zone or ZoneList or Space or SpaceList Name
    Vacation,                !- Schedule Name
    Watts/Area,              !- Design Level Calculation Method
    ,                        !- Lighting Level {W}
    9.5,                     !- Watts per Floor Area {W/m2}
    ,                        !- Watts per Person {W/person}
    0,                       !- Return Air Fraction
    0.2,                     !- Fraction Radiant
    0.7,                     !- Fraction Visible
    1,                       !- Fraction Replaceable
    General;                 !- End-Use Subcategory

  ScheduleTypeLimits,
    Fractional,              !- Name
    0,                       !- Lower Limit Value
    1,                       !- Upper Limit Value
    Continuous,              !- Numeric Type
    dimensionless;           !- Unit Type

  Schedule:Day:Interval,
    Building Occupancy_Sunday,  !- Name
    Fractional,              !- Schedule Type Limits Name
    No,                      !- Interpolate to Timestep
    24:00,                   !- Time 1
    0;                       !- Value Until Time 1

  Schedule:Day:Interval,
    Schedule Day 2,          !- Name
    Fractional,              !- Schedule Type Limits Name
    No,                      !- Interpolate to Timestep
    07:00,                   !- Time 1
    0,                       !- Value Until Time 1
    11:00,                   !- Time 2
    1,                       !- Value Until Time 2
    17:00,                   !- Time 3
    0.5,                     !- Value Until Time 3
    24:00,                   !- Time 4
    0;                       !- Value Until Time 4

  Schedule:Day:Interval,
    Schedule Day 1,          !- Name
    Fractional,              !- Schedule Type Limits Name
    No,                      !- Interpolate to Timestep
    24:00,                   !- Time 1
    0;                       !- Value Until Time 1

  Schedule:Week:Daily,
    Vacation Week Rule - Jan1-Nov11,  !- Name
    Building Occupancy_Sunday,  !- Sunday Schedule:Day Name
    Schedule Day 2,          !- Monday Schedule:Day Name
    Schedule Day 2,          !- Tuesday Schedule:Day Name
    Schedule Day 2,          !- Wednesday Schedule:Day Name
    Schedule Day 2,          !- Thursday Schedule:Day Name
    Schedule Day 2,          !- Friday Schedule:Day Name
    Building Occupancy_Sunday,  !- Saturday Schedule:Day Name
    Building Occupancy_Hol 1,!- Holiday Schedule:Day Name
    Building Occupancy_Monday_SmrDsn 1,  !- SummerDesignDay Schedule:Day Name
    Building Occupancy_Monday_SmrDsn_WntrDsn 1,  !- WinterDesignDay Schedule:Day Name
    Building Occupancy_Sunday,  !- CustomDay1 Schedule:Day Name
    Building Occupancy_Sunday;  !- CustomDay2 Schedule:Day Name

  Schedule:Week:Daily,
    Vacation Week Rule - Nov12-Nov18,  !- Name
    Building Occupancy_Sunday,  !- Sunday Schedule:Day Name
    Schedule Day 2,          !- Monday Schedule:Day Name
    Schedule Day 2,          !- Tuesday Schedule:Day Name
    Schedule Day 2,          !- Wednesday Schedule:Day Name
    Schedule Day 1,          !- Thursday Schedule:Day Name
    Schedule Day 1,          !- Friday Schedule:Day Name
    Schedule Day 1,          !- Saturday Schedule:Day Name
    Building Occupancy_Hol 1,!- Holiday Schedule:Day Name
    Building Occupancy_Monday_SmrDsn 1,  !- SummerDesignDay Schedule:Day Name
    Building Occupancy_Monday_SmrDsn_WntrDsn 1,  !- WinterDesignDay Schedule:Day Name
    Building Occupancy_Sunday,  !- CustomDay1 Schedule:Day Name
    Building Occupancy_Sunday;  !- CustomDay2 Schedule:Day Name

  Schedule:Week:Daily,
    Vacation Week Rule - Nov19-Dec30,  !- Name
    Schedule Day 1,          !- Sunday Schedule:Day Name
    Schedule Day 1,          !- Monday Schedule:Day Name
    Schedule Day 1,          !- Tuesday Schedule:Day Name
    Schedule Day 1,          !- Wednesday Schedule:Day Name
    Schedule Day 1,          !- Thursday Schedule:Day Name
    Schedule Day 1,          !- Friday Schedule:Day Name
    Schedule Day 1,          !- Saturday Schedule:Day Name
    Building Occupancy_Hol 1,!- Holiday Schedule:Day Name
    Building Occupancy_Monday_SmrDsn 1,  !- SummerDesignDay Schedule:Day Name
    Building Occupancy_Monday_SmrDsn_WntrDsn 1,  !- WinterDesignDay Schedule:Day Name
    Building Occupancy_Sunday,  !- CustomDay1 Schedule:Day Name
    Building Occupancy_Sunday;  !- CustomDay2 Schedule:Day Name

  Schedule:Week:Daily,
    Vacation Week Rule - Dec31-Dec31,  !- Name
    Building Occupancy_Sunday,  !- Sunday Schedule:Day Name
    Schedule Day 1,          !- Monday Schedule:Day Name
    Schedule Day 1,          !- Tuesday Schedule:Day Name
    Schedule Day 1,          !- Wednesday Schedule:Day Name
    Schedule Day 1,          !- Thursday Schedule:Day Name
    Schedule Day 1,          !- Friday Schedule:Day Name
    Schedule Day 1,          !- Saturday Schedule:Day Name
    Building Occupancy_Hol 1,!- Holiday Schedule:Day Name
    Building Occupancy_Monday_SmrDsn 1,  !- SummerDesignDay Schedule:Day Name
    Building Occupancy_Monday_SmrDsn_WntrDsn 1,  !- WinterDesignDay Schedule:Day Name
    Building Occupancy_Sunday,  !- CustomDay1 Schedule:Day Name
    Building Occupancy_Sunday;  !- CustomDay2 Schedule:Day Name

  Schedule:Year,
    Vacation,                !- Name
    Fractional,              !- Schedule Type Limits Name
    Vacation Week Rule - Jan1-Nov11,  !- Schedule:Week Name 1
    1,                       !- Start Month 1
    1,                       !- Start Day 1
    11,                      !- End Month 1
    11,                      !- End Day 1
    Vacation Week Rule - Nov12-Nov18,  !- Schedule:Week Name 2
    11,                      !- Start Month 2
    12,                      !- Start Day 2
    11,                      !- End Month 2
    18,                      !- End Day 2
    Vacation Week Rule - Nov19-Dec30,  !- Schedule:Week Name 3
    11,                      !- Start Month 3
    19,                      !- Start Day 3
    12,                      !- End Month 3
    30,                      !- End Day 3
    Vacation Week Rule - Dec31-Dec31,  !- Schedule:Week Name 4
    12,                      !- Start Month 4
    31,                      !- Start Day 4
    12,                      !- End Month 4
    31;                      !- End Day 4

  Schedule:Day:Interval,
    Building Occupancy_Monday_SmrDsn 1,  !- Name
    Fractional,              !- Schedule Type Limits Name
    No,                      !- Interpolate to Timestep
    07:00,                   !- Time 1
    0,                       !- Value Until Time 1
    11:00,                   !- Time 2
    1,                       !- Value Until Time 2
    17:00,                   !- Time 3
    0.5,                     !- Value Until Time 3
    24:00,                   !- Time 4
    0;                       !- Value Until Time 4

  Schedule:Day:Interval,
    Building Occupancy_Monday_SmrDsn_WntrDsn 1,  !- Name
    Fractional,              !- Schedule Type Limits Name
    No,                      !- Interpolate to Timestep
    24:00,                   !- Time 1
    0;                       !- Value Until Time 1

  Schedule:Day:Interval,
    Building Occupancy_Hol 1,!- Name
    Fractional,              !- Schedule Type Limits Name
    No,                      !- Interpolate to Timestep
    24:00,                   !- Time 1
    0;                       !- Value Until Time 1

  People,
    NonIHL People,           !- Name
    NonIHL,                  !- Zone or ZoneList or Space or SpaceList Name
    Vacation,                !- Number of People Schedule Name
    People/Area,             !- Number of People Calculation Method
    ,                        !- Number of People
    0.025064,                !- People per Floor Area {person/m2}
    ,                        !- Floor Area per Person {m2/person}
    0.3,                     !- Fraction Radiant
    0.7,                     !- Sensible Heat Fraction
    Activity Level;          !- Activity Level Schedule Name

  ScheduleTypeLimits,
    Activity Level,          !- Name
    0,                       !- Lower Limit Value
    ,                        !- Upper Limit Value
    Continuous,              !- Numeric Type
    activitylevel;           !- Unit Type

  Schedule:Day:Interval,
    Activity Level_Day Schedule,  !- Name
    Activity Level,          !- Schedule Type Limits Name
    No,                      !- Interpolate to Timestep
    24:00,                   !- Time 1
    120;                     !- Value Until Time 1

  Schedule:Week:Daily,
    Activity Level Week Rule - Jan1-Dec31,  !- Name
    Activity Level_Day Schedule,  !- Sunday Schedule:Day Name
    Activity Level_Day Schedule,  !- Monday Schedule:Day Name
    Activity Level_Day Schedule,  !- Tuesday Schedule:Day Name
    Activity Level_Day Schedule,  !- Wednesday Schedule:Day Name
    Activity Level_Day Schedule,  !- Thursday Schedule:Day Name
    Activity Level_Day Schedule,  !- Friday Schedule:Day Name
    Activity Level_Day Schedule,  !- Saturday Schedule:Day Name
    Activity Level_Day Schedule,  !- Holiday Schedule:Day Name
    Activity Level_Day Schedule,  !- SummerDesignDay Schedule:Day Name
    Activity Level_Day Schedule,  !- WinterDesignDay Schedule:Day Name
    Activity Level_Day Schedule,  !- CustomDay1 Schedule:Day Name
    Activity Level_Day Schedule;  !- CustomDay2 Schedule:Day Name

  Schedule:Year,
    Activity Level,          !- Name
    Activity Level,          !- Schedule Type Limits Name
    Activity Level Week Rule - Jan1-Dec31,  !- Schedule:Week Name 1
    1,                       !- Start Month 1
    1,                       !- Start Day 1
    12,                      !- End Month 1
    31;                      !- End Day 1

  ElectricEquipment,
    NonIHL Equipment,        !- Name
    NonIHL,                  !- Zone or ZoneList or Space or SpaceList Name
    Vacation,                !- Schedule Name
    Watts/Area,              !- Design Level Calculation Method
    ,                        !- Design Level {W}
    8,                       !- Watts per Floor Area {W/m2}
    ,                        !- Watts per Person {W/person}
    0,                       !- Fraction Latent
    0.5,                     !- Fraction Radiant
    0,                       !- Fraction Lost
    Electric Equipment;      !- End-Use Subcategory

  BuildingSurface:Detailed,
    NonIHL_Shoebox_1_6f0fbfeb..Face0,  !- Name
    Wall,                    !- Surface Type
    Generic Air Boundary,    !- Construction Name
    NonIHL_Shoebox_1_6f0fbfeb,  !- Zone Name
    NonIHL_Shoebox_1_6f0fbfeb_Space,  !- Space Name
    Surface,                 !- Outside Boundary Condition
    NonIHL_Shoebox_3_62284603..Face1,  !- Outside Boundary Condition Object
    NoSun,                   !- Sun Exposure
    NoWind,                  !- Wind Exposure
    ,                        !- View Factor to Ground
    ,                        !- Number of Vertices
    1,9,3,  !- X,Y,Z ==> Vertex 1 {m}
    1,9,0,  !- X,Y,Z ==> Vertex 2 {m}
    1,1,0,  !- X,Y,Z ==> Vertex 3 {m}
    1,1,3;  !- X,Y,Z ==> Vertex 4 {m}

  BuildingSurface:Detailed,
    NonIHL_Shoebox_1_6f0fbfeb..Face1,  !- Name
    Wall,                    !- Surface Type
    Generic Air Boundary,    !- Construction Name
    NonIHL_Shoebox_1_6f0fbfeb,  !- Zone Name
    NonIHL_Shoebox_1_6f0fbfeb_Space,  !- Space Name
    Surface,                 !- Outside Boundary Condition
    NonIHL_Shoebox_2_13b1d407..Face1,  !- Outside Boundary Condition Object
    NoSun,                   !- Sun Exposure
    NoWind,                  !- Wind Exposure
    ,                        !- View Factor to Ground
    ,                        !- Number of Vertices
    1,1,3,  !- X,Y,Z ==> Vertex 1 {m}
    1,1,0,  !- X,Y,Z ==> Vertex 2 {m}
    9,1,0,  !- X,Y,Z ==> Vertex 3 {m}
    9,1,3;  !- X,Y,Z ==> Vertex 4 {m}

  BuildingSurface:Detailed,
    NonIHL_Shoebox_1_6f0fbfeb..Face2,  !- Name
    Wall,                    !- Surface Type
    Generic Air Boundary,    !- Construction Name
    NonIHL_Shoebox_1_6f0fbfeb,  !- Zone Name
    NonIHL_Shoebox_1_6f0fbfeb_Space,  !- Space Name
    Surface,                 !- Outside Boundary Condition
    NonIHL_Shoebox_5_a1d11df5..Face1,  !- Outside Boundary Condition Object
    NoSun,                   !- Sun Exposure
    NoWind,                  !- Wind Exposure
    ,                        !- View Factor to Ground
    ,                        !- Number of Vertices
    9,1,3,  !- X,Y,Z ==> Vertex 1 {m}
    9,1,0,  !- X,Y,Z ==> Vertex 2 {m}
    9,9,0,  !- X,Y,Z ==> Vertex 3 {m}
    9,9,3;  !- X,Y,Z ==> Vertex 4 {m}

  BuildingSurface:Detailed,
    NonIHL_Shoebox_1_6f0fbfeb..Face3,  !- Name
    Wall,                    !- Surface Type
    Generic Air Boundary,    !- Construction Name
    NonIHL_Shoebox_1_6f0fbfeb,  !- Zone Name
    NonIHL_Shoebox_1_6f0fbfeb_Space,  !- Space Name
    Surface,                 !- Outside Boundary Condition
    NonIHL_Shoebox_4_cb3a4fdc..Face1,  !- Outside Boundary Condition Object
    NoSun,                   !- Sun Exposure
    NoWind,                  !- Wind Exposure
    ,                        !- View Factor to Ground
    ,                        !- Number of Vertices
    9,9,3,  !- X,Y,Z ==> Vertex 1 {m}
    9,9,0,  !- X,Y,Z ==> Vertex 2 {m}
    1,9,0,  !- X,Y,Z ==> Vertex 3 {m}
    1,9,3;  !- X,Y,Z ==> Vertex 4 {m}

  BuildingSurface:Detailed,
    NonIHL_Shoebox_1_6f0fbfeb..Face4,  !- Name
    Floor,                   !- Surface Type
    Generic Ground Slab,     !- Construction Name
    NonIHL_Shoebox_1_6f0fbfeb,  !- Zone Name
    NonIHL_Shoebox_1_6f0fbfeb_Space,  !- Space Name
    Ground,                  !- Outside Boundary Condition
    ,                        !- Outside Boundary Condition Object
    NoSun,                   !- Sun Exposure
    NoWind,                  !- Wind Exposure
    ,                        !- View Factor to Ground
    ,                        !- Number of Vertices
    9,9,0,  !- X,Y,Z ==> Vertex 1 {m}
    9,1,0,  !- X,Y,Z ==> Vertex 2 {m}
    1,1,0,  !- X,Y,Z ==> Vertex 3 {m}
    1,9,0;  !- X,Y,Z ==> Vertex 4 {m}

  BuildingSurface:Detailed,
    NonIHL_Shoebox_1_6f0fbfeb..Face5,  !- Name
    Roof,                    !- Surface Type
    exterior_roof,           !- Construction Name
    NonIHL_Shoebox_1_6f0fbfeb,  !- Zone Name
    NonIHL_Shoebox_1_6f0fbfeb_Space,  !- Space Name
    Outdoors,                !- Outside Boundary Condition
    ,                        !- Outside Boundary Condition Object
    SunExposed,              !- Sun Exposure
    WindExposed,             !- Wind Exposure
    ,                        !- View Factor to Ground
    ,                        !- Number of Vertices
    1,9,3,  !- X,Y,Z ==> Vertex 1 {m}
    1,1,3,  !- X,Y,Z ==> Vertex 2 {m}
    9,1,3,  !- X,Y,Z ==> Vertex 3 {m}
    9,9,3;  !- X,Y,Z ==> Vertex 4 {m}

  ZoneMixing,
    Zone Mixing 1,           !- Name
    NonIHL_Shoebox_1_6f0fbfeb,  !- Zone or Space Name
    Always On,               !- Schedule Name
    Flow/Zone,               !- Design Flow Rate Calculation Method
    1.44,                    !- Design Flow Rate {m3/s}
    ,                        !- Flow Rate per Floor Area {m3/s-m2}
    ,                        !- Flow Rate per Person {m3/s-person}
    ,                        !- Air Changes per Hour {1/hr}
    NonIHL_Shoebox_3_62284603;  !- Source Zone or Space Name

  Schedule:Day:Interval,
    Always On_Day Schedule,  !- Name
    Fractional,              !- Schedule Type Limits Name
    No,                      !- Interpolate to Timestep
    24:00,                   !- Time 1
    1;                       !- Value Until Time 1

  Schedule:Week:Daily,
    Always On Week Rule - Jan1-Dec31,  !- Name
    Always On_Day Schedule,  !- Sunday Schedule:Day Name
    Always On_Day Schedule,  !- Monday Schedule:Day Name
    Always On_Day Schedule,  !- Tuesday Schedule:Day Name
    Always On_Day Schedule,  !- Wednesday Schedule:Day Name
    Always On_Day Schedule,  !- Thursday Schedule:Day Name
    Always On_Day Schedule,  !- Friday Schedule:Day Name
    Always On_Day Schedule,  !- Saturday Schedule:Day Name
    Always On_Day Schedule,  !- Holiday Schedule:Day Name
    Always On_Day Schedule,  !- SummerDesignDay Schedule:Day Name
    Always On_Day Schedule,  !- WinterDesignDay Schedule:Day Name
    Always On_Day Schedule,  !- CustomDay1 Schedule:Day Name
    Always On_Day Schedule;  !- CustomDay2 Schedule:Day Name

  Schedule:Year,
    Always On,               !- Name
    Fractional,              !- Schedule Type Limits Name
    Always On Week Rule - Jan1-Dec31,  !- Schedule:Week Name 1
    1,                       !- Start Month 1
    1,                       !- Start Day 1
    12,                      !- End Month 1
    31;                      !- End Day 1

  ZoneMixing,
    Zone Mixing 2,           !- Name
    NonIHL_Shoebox_1_6f0fbfeb,  !- Zone or Space Name
    Always On,               !- Schedule Name
    Flow/Zone,               !- Design Flow Rate Calculation Method
    1.44,                    !- Design Flow Rate {m3/s}
    ,                        !- Flow Rate per Floor Area {m3/s-m2}
    ,                        !- Flow Rate per Person {m3/s-person}
    ,                        !- Air Changes per Hour {1/hr}
    NonIHL_Shoebox_2_13b1d407;  !- Source Zone or Space Name

  ZoneMixing,
    Zone Mixing 3,           !- Name
    NonIHL_Shoebox_1_6f0fbfeb,  !- Zone or Space Name
    Always On,               !- Schedule Name
    Flow/Zone,               !- Design Flow Rate Calculation Method
    1.44,                    !- Design Flow Rate {m3/s}
    ,                        !- Flow Rate per Floor Area {m3/s-m2}
    ,                        !- Flow Rate per Person {m3/s-person}
    ,                        !- Air Changes per Hour {1/hr}
    NonIHL_Shoebox_5_a1d11df5;  !- Source Zone or Space Name

  ZoneMixing,
    Zone Mixing 4,           !- Name
    NonIHL_Shoebox_1_6f0fbfeb,  !- Zone or Space Name
    Always On,               !- Schedule Name
    Flow/Zone,               !- Design Flow Rate Calculation Method
    1.44,                    !- Design Flow Rate {m3/s}
    ,                        !- Flow Rate per Floor Area {m3/s-m2}
    ,                        !- Flow Rate per Person {m3/s-person}
    ,                        !- Air Changes per Hour {1/hr}
    NonIHL_Shoebox_4_cb3a4fdc;  !- Source Zone or Space Name

  ZoneVentilation:DesignFlowRate,
    VentilationFan_83599144..NonIHL_Shoebox_1_6f0fbfeb,  !- Name
    NonIHL_Shoebox_1_6f0fbfeb,  !- Zone or ZoneList or Space or SpaceList Name
    Always On Discrete,      !- Schedule Name
    Flow/Zone,               !- Design Flow Rate Calculation Method
    0.9,                     !- Design Flow Rate {m3/s}
    0,                       !- Flow Rate per Floor Area {m3/s-m2}
    0,                       !- Flow Rate per Person {m3/s-person}
    0,                       !- Air Changes per Hour {1/hr}
    Intake,                  !- Ventilation Type
    60,                      !- Fan Pressure Rise {Pa}
    0.7,                     !- Fan Total Efficiency
    0.606,                   !- Constant Term Coefficient
    0.03636,                 !- Temperature Term Coefficient